src/test/resources/pst_special/process1/20260620_1130_FO2_IT0.uct
##C 2007.05.01
##N
##ZIT
IMFTV121 MONFALC.CE g 0 0 090.94     5.2     1.2     7.8     5.4     2.7     0.8     1.5     6.2
IPDRV121 PADRICIANO g 0 0 634.08    01.4   -99.3     9.3     7.8     9.8     9.7     2.9     4.1
IPDRV122 PADRICIANO g 0 0 921.65     6.1     6.7     1.5     9.4     8.9     6.0     9.1     0.2
IRDPVA21 REDIPUGLIA g 0 0 073.49    08.5    92.3     0.7     4.1     3.7     1.0     4.7     2.8
##ZXX
XPA_DI21 DIVJ    211  0 0 440.16  -216.6     5.7     1.4     8.5     6.3     9.2     0.3     4.2
##L
IMFTV121 IPDRV121 1 0  5.678 75.277   796.73    900 XXXXXXXXXXXX
IMFTV121 IRDPVA21 1 0  2.645  1.518    73.34    810 XXXXXXXXXXXX
IRDPVA21 IPDRV121 1 0  8.329 76.336   071.87    855 XXXXXXXXXXXX
XPA_DI21 IPDRV122 1 0  7.608  9.522    84.82    960 XXXXXXXXXXXX
##T
IPDRV121 IPDRV122 1 0 629.8 502.6  370.  0.899 38.688   -7.747  3.171    928 XXXXXXXXXXXX
##R
IPDRV121 IPDRV122 1                    3.476  51.2 16  -6    0. SYMM
